notebooks/example_120/model.glm
#include "resources/schedules.glm";
module assert;
module climate;
module generators;
module market;
module tape;
clock{
	starttime '2013-07-01 04:00:00';
	stoptime '2013-07-02 04:00:00';
}

class auction{
	double current_price_mean_24h; double current_price_stdev_24h; double my_avg; double my_std;
}


module powerflow{
	solver_method NR;
}

module residential{
	implicit_enduses NONE;
}

object line_configuration{
	conductor_A conductor1;
	conductor_B conductor1;
	conductor_C conductor1;
	conductor_N conductor2;
	name line_configuration_4;
	spacing line_spacing1;
}

object line_configuration{
	conductor_A conductor2;
	conductor_B conductor2;
	conductor_C conductor2;
	conductor_N conductor2;
	name line_configuration_5;
	spacing line_spacing2;
}

object line_configuration{
	conductor_B conductor3;
	conductor_C conductor3;
	conductor_N conductor3;
	name line_configuration_6;
	spacing line_spacing3;
}

object line_configuration{
	conductor_A conductor3;
	conductor_C conductor3;
	conductor_N conductor3;
	name line_configuration_0;
	spacing line_spacing4;
}

object line_configuration{
	conductor_C conductor3;
	conductor_N conductor3;
	name line_configuration_1;
	spacing line_spacing5;
}

object line_configuration{
	conductor_A conductor4;
	conductor_B conductor4;
	conductor_C conductor4;
	name line_configuration_2;
	spacing line_spacing6;
}

object line_configuration{
	conductor_A conductor5;
	conductor_N conductor5;
	name line_configuration_3;
	spacing line_spacing6;
}

object regulator_configuration{
	Control MANUAL;
	band_center 2300;
	band_width 20.0;
	connect_type WYE_WYE;
	lower_taps 16;
	name regulator_configuration_0;
	raise_taps 16;
	regulation 0.10;
	tap_pos_A 10;
	tap_pos_B 8;
	tap_pos_C 11;
	time_delay 30.0;
}

object transformer_configuration{
	connect_type WYE_WYE;
	install_type PADMOUNT;
	name transformer_configuration_0;
	power_rating 500;
	primary_voltage 4160;
	reactance 0.02;
	resistance 0.011;
	secondary_voltage 480;
}

object csv_reader{
	filename "resources/SCADA_weather_NC_gld_shifted.csv";
	name CsvReader;
}

object load{
	constant_power_C 145499.967265+80000.0045026j;
	name load_1;
	nominal_voltage 2401.7771;
	parent node_11;
	phases "CN";
	voltage_A 2401.7771;
	voltage_B -1200.8886-2080.000j;
	voltage_C -1200.8886+2080.000j;
}

object load{
	constant_power_A 833.333+6666.6667j;
	constant_power_B 19500+25333.3333j;
	constant_power_C 53500+45333.3333j;
	name load_8;
	nominal_voltage 2401.7771;
	parent node_4;
	phases "ABCN";
	voltage_A 2401.7771;
	voltage_B -1200.8886-2080.000j;
	voltage_C -1200.8886+2080.000j;
}

object load{
	constant_power_A 135500+110000j;
	constant_power_B 95500+90000j;
	constant_power_C 95500+90000j;
	name load_4;
	nominal_voltage 480.000;
	parent node_5;
	phases "ABCN";
	voltage_A 480.000+0j;
	voltage_B -240.000-415.6922j;
	voltage_C -240.000+415.6922j;
}

object load{
	constant_power_B 145500+125000j;
	name load_5;
	nominal_voltage 2401.7771;
	parent node_2;
	phases "BCN";
	voltage_A 2401.7771;
	voltage_B -1200.8886-2080.000j;
	voltage_C -1200.8886+2080.000j;
}

object load{
	constant_power_B 205499.849829+132000.009222j;
	name load_6;
	nominal_voltage 2401.7771;
	parent node_3;
	phases "BCD";
	voltage_A 2401.7771;
	voltage_B -1200.8886-2080.000j;
	voltage_C -1200.8886+2080.000j;
}

object load{
	constant_impedance_A 31.0501+20.8618j;
	name load_0;
	nominal_voltage 2401.7771;
	parent node_9;
	phases "AN";
	voltage_A 2401.7771;
	voltage_B -1200.8886-2080.000j;
	voltage_C -1200.8886+2080.000j;
}

object load{
	constant_power_A 385000+220000j;
	constant_power_B 385000+220000j;
	constant_power_C 385000+220000j;
	name load_7;
	nominal_voltage 2401.7771;
	parent node_14;
	phases "ABCD";
	voltage_A 2401.7771;
	voltage_B -1200.8886-2080.000j;
	voltage_C -1200.8886+2080.000j;
}

object load{
	constant_power_A 2166.6667+3333.3333j;
	constant_power_B 1000+12666.6667j;
	constant_power_C 14500+22666.6667j;
	name load_9;
	nominal_voltage 2401.7771;
	parent node_14;
	phases "ABC";
	voltage_A 2401.7771;
	voltage_B -1200.8886-2080.000j;
	voltage_C -1200.8886+2080.000j;
}

object load{
	constant_power_A 460500+190000j;
	constant_power_B 43500+60000j;
	constant_power_C 265500+212000j;
	name load_3;
	nominal_voltage 2401.7771;
	parent node_13;
	phases "ABC";
	voltage_A 2401.7771;
	voltage_B -1200.8886-2080.000j;
	voltage_C -1200.8886+2080.000j;
}

object load{
	constant_power_C 145499.8164+150999.871728j;
	name load_2;
	nominal_voltage 2401.7771;
	parent node_12;
	phases "ABCD";
	voltage_A 2401.7771;
	voltage_B -1200.8886-2080.000j;
	voltage_C -1200.8886+2080.000j;
}

object node{
	name node_11;
	nominal_voltage 2401.7771;
	phases "CN";
	voltage_A 2401.7771;
	voltage_B -1200.8886-2080.000j;
	voltage_C -1200.8886+2080.000j;
}

object node{
	name node_6;
	nominal_voltage 2401.7771;
	phases "ABCN";
	voltage_A 2401.7771+0j;
	voltage_B -1200.8886-2080.000j;
	voltage_C -1200.8886+2080.000j;
}

object node{
	name node_7;
	nominal_voltage 2401.7771;
	phases "ABCN";
	voltage_A 2401.7771;
	voltage_B -1200.8886-2080.000j;
	voltage_C -1200.8886+2080.000j;
}

object node{
	name node_4;
	nominal_voltage 2401.7771;
	phases "ABCN";
	voltage_A 2401.7771;
	voltage_B -1200.8886-2080.000j;
	voltage_C -1200.8886+2080.000j;
}

object node{
	name node_8;
	nominal_voltage 2401.7771;
	phases "ABCN";
	voltage_A 2401.7771;
	voltage_B -1200.8886-2080.000j;
	voltage_C -1200.8886+2080.000j;
}

object node{
	name node_5;
	nominal_voltage 480.000;
	phases "ABCN";
	voltage_A 480.000+0j;
	voltage_B -240.000-415.6922j;
	voltage_C -240.000+415.6922j;
}

object node{
	name node_2;
	nominal_voltage 2401.7771;
	phases "BCN";
	voltage_A 2401.7771;
	voltage_B -1200.8886-2080.000j;
	voltage_C -1200.8886+2080.000j;
}

object node{
	name node_3;
	nominal_voltage 2401.7771;
	phases "BCD";
	voltage_A 2401.7771;
	voltage_B -1200.8886-2080.000j;
	voltage_C -1200.8886+2080.000j;
}

object node{
	bustype SWING;
	name node_10;
	nominal_voltage 2401.7771;
	phases "ABCN";
	voltage_A 2401.7771;
	voltage_B -1200.8886-2080.000j;
	voltage_C -1200.8886+2080.000j;
}

object node{
	name node_9;
	nominal_voltage 2401.7771;
	phases "AN";
	voltage_A 2401.7771;
	voltage_B -1200.8886-2080.000j;
	voltage_C -1200.8886+2080.000j;
}

object node{
	name node_14;
	nominal_voltage 2401.7771;
	phases "ABCD";
	voltage_A 2401.7771;
	voltage_B -1200.8886-2080.000j;
	voltage_C -1200.8886+2080.000j;
}

object node{
	name node_13;
	nominal_voltage 2401.7771;
	phases "ABC";
	voltage_A 2401.7771;
	voltage_B -1200.8886-2080.000j;
	voltage_C -1200.8886+2080.000j;
}

object node{
	name node_1;
	nominal_voltage 2401.7771;
	phases "ABCN";
	voltage_A 2401.7771;
	voltage_B -1200.8886-2080.000j;
	voltage_C -1200.8886+2080.000j;
}

object node{
	name node_0;
	nominal_voltage 2401.7771;
	phases "ACN";
	voltage_A 2401.7771;
	voltage_B -1200.8886-2080.000j;
	voltage_C -1200.8886+2080.000j;
}

object node{
	name node_12;
	nominal_voltage 2401.7771;
	phases "ABCD";
	voltage_A 2401.7771;
	voltage_B -1200.8886-2080.000j;
	voltage_C -1200.8886+2080.000j;
}

object regulator{
	configuration regulator_configuration_0;
	from node_10;
	name regulator_0;
	phases "ABC";
	sense_node node_14;
	to node_6;
}

object transformer{
	configuration transformer_configuration_0;
	from node_8;
	name transformer_0;
	phases "ABCN";
	to node_5;
}

object overhead_line_conductor{
	geometric_mean_radius 0.031300;
	name conductor1;
	resistance 0.185900;
}

object overhead_line_conductor{
	geometric_mean_radius 0.00814;
	name conductor2;
	resistance 0.592000;
}

object overhead_line_conductor{
	geometric_mean_radius 0.004460;
	name conductor3;
	resistance 1.120000;
}

object underground_line_conductor{
	conductor_diameter 0.567000;
	conductor_gmr 0.017100;
	conductor_resistance 0.410000;
	name conductor4;
	neutral_diameter 0.0640837;
	neutral_gmr 0.0020800;
	neutral_resistance 14.87200;
	neutral_strands 13.000000;
	outer_diameter 1.290000;
	shield_gmr 0.000000;
	shield_resistance 0.000000;
}

object underground_line_conductor{
	conductor_diameter 0.368000;
	conductor_gmr 0.011100;
	conductor_resistance 0.970000;
	name conductor5;
	neutral_diameter 0.0640837;
	neutral_gmr 0.011100;
	neutral_resistance 0.970000;
	neutral_strands 6.000000;
	outer_diameter 1.060000;
	shield_gmr 0.000000;
	shield_resistance 0.000000;
}

object climate{
	name house_climate;
	reader CsvReader;
	tmyfile "resources/SCADA_weather_NC_gld_shifted.csv";
}

object line_spacing{
	distance_AB 2.5;
	distance_AC 4.5;
	distance_AN 4.272002;
	distance_BC 7.0;
	distance_BN 5.656854;
	distance_CN 5.0;
	name line_spacing1;
}

object line_spacing{
	distance_AB 4.5;
	distance_AC 2.5;
	distance_AN 4.272002;
	distance_BC 7.0;
	distance_BN 5.0;
	distance_CN 5.656854;
	name line_spacing2;
}

object line_spacing{
	distance_AB 0.0;
	distance_AC 0.0;
	distance_AN 0.0;
	distance_BC 7.0;
	distance_BN 5.0;
	distance_CN 5.656854;
	name line_spacing3;
}

object line_spacing{
	distance_AB 0.0;
	distance_AC 7.0;
	distance_AN 5.656854;
	distance_BC 0.0;
	distance_BN 0.0;
	distance_CN 5.0;
	name line_spacing4;
}

object line_spacing{
	distance_AB 0.0;
	distance_AC 0.0;
	distance_AN 0.0;
	distance_BC 0.0;
	distance_BN 0.0;
	distance_CN 5.0;
	name line_spacing5;
}

object line_spacing{
	distance_AB 0.500000;
	distance_AC 1.000000;
	distance_AN 0.000000;
	distance_BC 0.500000;
	distance_BN 0.000000;
	distance_CN 0.000000;
	name line_spacing6;
}

object line_spacing{
	distance_AB 0.000000;
	distance_AC 0.000000;
	distance_AN 0.083333;
	distance_BC 0.000000;
	distance_BN 0.000000;
	distance_CN 0.000000;
	name line_spacing_7;
}

object overhead_line{
	configuration line_configuration_6;
	from node_7;
	length 500;
	name line_6;
	phases "BCN";
	to node_2;
}

object underground_line{
	configuration line_configuration_2;
	from node_12;
	length 500;
	name line_1;
	phases "ABC";
	to node_13;
}

object overhead_line{
	configuration line_configuration_5;
	from node_7;
	length 500;
	name line_0;
	phases "ABCN";
	to node_8;
}

object overhead_line{
	configuration line_configuration_6;
	from node_2;
	length 300;
	name line_8;
	phases "BCN";
	to node_3;
}

object overhead_line{
	configuration line_configuration_4;
	from node_6;
	length 2000;
	name line_7;
	phases "ABCN";
	to node_7;
}

object overhead_line{
	configuration line_configuration_4;
	from node_7;
	length 500;
	name line_3;
	phases "ABCN";
	to node_4;
}

object overhead_line{
	configuration line_configuration_4;
	from node_4;
	length 1500;
	name line_2;
	phases "ABCN";
	to node_14;
}

object overhead_line{
	configuration line_configuration_4;
	from node_14;
	length 1000;
	name line_5;
	phases "ABCN";
	to node_1;
}

object overhead_line{
	configuration line_configuration_0;
	from node_14;
	length 300;
	name line_4;
	phases "ACN";
	to node_0;
}

object overhead_line{
	configuration line_configuration_1;
	from node_0;
	length 300;
	name line_10;
	phases "CN";
	to node_11;
}

object underground_line{
	configuration line_configuration_3;
	from node_0;
	length 800;
	name line_9;
	phases "AN";
	to node_9;
}

object player{
	file resources/hvac_schedule.player;
	loop 3000;
	name player_0;
	parent auction_0;
	property fixed_price;
}

object switch{
	from node_14;
	name switch_0;
	phases "ABCN";
	status CLOSED;
	to node_12;
}

object player{
	file resources/ev_schedule.player;
	loop 3000;
	name player_1;
	parent auction_1;
	property fixed_price;
}

object auction{
	my_avg 0.12;
	my_std 0.05;
	name auction_0;
	period 900;
	special_mode BUYERS_ONLY;
	unit kW;
	warmup 1;
}

object auction{
	my_avg 0.12;
	my_std 0.05;
	name auction_1;
	period 900;
	special_mode BUYERS_ONLY;
	unit kW;
	warmup 1;
}

object transformer_configuration{
	connect_type SINGLE_PHASE_CENTER_TAPPED;
	impedance 0.00033+0.0022j;
	install_type POLETOP;
	name transformer_configuration_1;
	powerA_rating 25;
	primary_voltage 2401.777;
	secondary_voltage 120;
	shunt_impedance 10000+10000j;
}

object transformer{
	configuration transformer_configuration_1;
	from node_14;
	groupid Distribution_Trans;
	name transformer_1;
	phases AS;
	to triplex_node_0;
}

object triplex_node{
	name triplex_node_0;
	nominal_voltage 120;
	phases AS;
}

object triplex_line_conductor{
	geometric_mean_radius 0.01111;
	name trip_line_conductor;
	resistance 0.97;
}

object triplex_line_configuration{
	conductor_1 trip_line_conductor;
	conductor_2 trip_line_conductor;
	conductor_N trip_line_conductor;
	diameter 0.368;
	insulation_thickness 0.08;
	name triplex_line_configuration_0;
}

object triplex_line{
	configuration triplex_line_configuration_0;
	from triplex_node_0;
	groupid Triplex_Line;
	length 20.10;
	name line_11;
	phases AS;
	to triplex_node_1;
}

object triplex_node{
	name triplex_node_1;
	nominal_voltage 120;
	phases AS;
}

object triplex_line{
	configuration triplex_line_configuration_0;
	from triplex_node_1;
	groupid Triplex_Line;
	length 20.10;
	name line_12;
	phases AS;
	to triplex_meter_0;
}

object triplex_meter{
	bill_day 1;
	bill_mode HOURLY;
	groupid house_meter;
	monthly_fee 15;
	name triplex_meter_0;
	nominal_voltage 120;
	phases AS;
	power_market auction_2;
}

object ZIPload{
	base_power unresponsive_loads*0.32;
	current_fraction 0.400000;
	current_pf 0.970;
	groupid Uncontrollable_load;
	heatgain_fraction 0.900;
	impedance_fraction 0.200000;
	impedance_pf 0.970;
	name ZIPload_0;
	parent house_0;
	power_fraction 0.400000;
	power_pf 0.970;
	schedule_skew 415;
}

object house{
	Rdoors 11.28;
	Rfloor 27.22;
	Rroof 40.63;
	Rwall 23.14;
	air_temperature 72.478707444;
	airchange_per_hour 0.25;
	auxiliary_strategy DEADBAND;
	auxiliary_system_type NONE;
	breaker_amps 1000;
	ceiling_height 9;
	cooling_COP 3.94;
	cooling_setpoint general_cooling*2.74567232394 + 72.478707444;
	cooling_system_type ELECTRIC;
	floor_area 2480;
	glass_type 2;
	glazing_layers 3;
	glazing_treatment 2;
	groupid res;
	heating_COP 3.9;
	heating_setpoint 50;
	heating_system_type HEAT_PUMP;
	hvac_breaker_rating 1000;
	mass_temperature 72.478707444;
	motor_efficiency VERY_GOOD;
	motor_model BASIC;
	name house_0;
	number_of_stories 1;
	over_sizing_factor 0.0;
	parent triplex_meter_0;
	schedule_skew 11197.3370123;
	total_thermal_mass_per_floor_area 3.665;
	window_frame 4;
	window_wall_ratio 0.15;
}

object transformer_configuration{
	connect_type SINGLE_PHASE_CENTER_TAPPED;
	impedance 0.00033+0.0022j;
	install_type POLETOP;
	name transformer_configuration_2;
	powerC_rating 25;
	primary_voltage 2401.777;
	secondary_voltage 120;
	shunt_impedance 10000+10000j;
}

object transformer{
	configuration transformer_configuration_2;
	from node_14;
	groupid Distribution_Trans;
	name transformer_2;
	phases CS;
	to triplex_node_2;
}

object triplex_node{
	name triplex_node_2;
	nominal_voltage 120;
	phases CS;
}

object triplex_line_configuration{
	conductor_1 trip_line_conductor;
	conductor_2 trip_line_conductor;
	conductor_N trip_line_conductor;
	diameter 0.368;
	insulation_thickness 0.08;
	name triplex_line_configuration_1;
}

object triplex_line{
	configuration triplex_line_configuration_1;
	from triplex_node_2;
	groupid Triplex_Line;
	length 20.10;
	name line_13;
	phases CS;
	to triplex_node_3;
}

object triplex_node{
	name triplex_node_3;
	nominal_voltage 120;
	phases CS;
}

object triplex_line{
	configuration triplex_line_configuration_1;
	from triplex_node_3;
	groupid Triplex_Line;
	length 20.10;
	name line_14;
	phases CS;
	to triplex_meter_1;
}

object triplex_meter{
	bill_day 1;
	bill_mode HOURLY;
	groupid house_meter;
	monthly_fee 15;
	name triplex_meter_1;
	nominal_voltage 120;
	phases CS;
	power_market auction_2;
}

object ZIPload{
	base_power unresponsive_loads*0.32;
	current_fraction 0.400000;
	current_pf 0.970;
	groupid Uncontrollable_load;
	heatgain_fraction 0.900;
	impedance_fraction 0.200000;
	impedance_pf 0.970;
	name ZIPload_1;
	parent house_1;
	power_fraction 0.400000;
	power_pf 0.970;
	schedule_skew 415;
}

object house{
	Rdoors 11.28;
	Rfloor 27.22;
	Rroof 40.63;
	Rwall 23.14;
	air_temperature 70.8549135312;
	airchange_per_hour 0.25;
	auxiliary_strategy DEADBAND;
	auxiliary_system_type NONE;
	breaker_amps 1000;
	ceiling_height 9;
	cooling_COP 3.94;
	cooling_setpoint general_cooling*1.17685771798 + 70.8549135312;
	cooling_system_type ELECTRIC;
	floor_area 2480;
	glass_type 2;
	glazing_layers 3;
	glazing_treatment 2;
	groupid res;
	heating_COP 3.9;
	heating_setpoint 50;
	heating_system_type HEAT_PUMP;
	hvac_breaker_rating 1000;
	mass_temperature 70.8549135312;
	motor_efficiency VERY_GOOD;
	motor_model BASIC;
	name house_1;
	number_of_stories 1;
	over_sizing_factor 0.0;
	parent triplex_meter_1;
	schedule_skew 10179.1474367;
	total_thermal_mass_per_floor_area 3.665;
	window_frame 4;
	window_wall_ratio 0.15;
}

object triplex_line_configuration{
	conductor_1 trip_line_conductor;
	conductor_2 trip_line_conductor;
	conductor_N trip_line_conductor;
	diameter 0.368;
	insulation_thickness 0.08;
	name triplex_line_configuration_2;
}

object triplex_line{
	configuration triplex_line_configuration_2;
	from triplex_node_2;
	groupid Triplex_Line;
	length 20.10;
	name line_15;
	phases CS;
	to triplex_node_4;
}

object triplex_node{
	name triplex_node_4;
	nominal_voltage 120;
	phases CS;
}

object triplex_line{
	configuration triplex_line_configuration_2;
	from triplex_node_4;
	groupid Triplex_Line;
	length 20.10;
	name line_16;
	phases CS;
	to triplex_meter_2;
}

object triplex_meter{
	bill_day 1;
	bill_mode HOURLY;
	groupid house_meter;
	monthly_fee 15;
	name triplex_meter_2;
	nominal_voltage 120;
	phases CS;
	power_market auction_2;
}

object ZIPload{
	base_power unresponsive_loads*0.32;
	current_fraction 0.400000;
	current_pf 0.970;
	groupid Uncontrollable_load;
	heatgain_fraction 0.900;
	impedance_fraction 0.200000;
	impedance_pf 0.970;
	name ZIPload_2;
	parent house_2;
	power_fraction 0.400000;
	power_pf 0.970;
	schedule_skew 415;
}

object house{
	Rdoors 11.28;
	Rfloor 27.22;
	Rroof 40.63;
	Rwall 23.14;
	air_temperature 70.489263441;
	airchange_per_hour 0.25;
	auxiliary_strategy DEADBAND;
	auxiliary_system_type NONE;
	breaker_amps 1000;
	ceiling_height 9;
	cooling_COP 3.94;
	cooling_setpoint general_cooling*3.17784024595 + 70.489263441;
	cooling_system_type ELECTRIC;
	floor_area 2480;
	glass_type 2;
	glazing_layers 3;
	glazing_treatment 2;
	groupid res;
	heating_COP 3.9;
	heating_setpoint 50;
	heating_system_type HEAT_PUMP;
	hvac_breaker_rating 1000;
	mass_temperature 70.489263441;
	motor_efficiency VERY_GOOD;
	motor_model BASIC;
	name house_2;
	number_of_stories 1;
	over_sizing_factor 0.0;
	parent triplex_meter_2;
	schedule_skew 12624.0757044;
	total_thermal_mass_per_floor_area 3.665;
	window_frame 4;
	window_wall_ratio 0.15;
}

object triplex_line_configuration{
	conductor_1 trip_line_conductor;
	conductor_2 trip_line_conductor;
	conductor_N trip_line_conductor;
	diameter 0.368;
	insulation_thickness 0.08;
	name triplex_line_configuration_3;
}

object triplex_line{
	configuration triplex_line_configuration_3;
	from triplex_node_2;
	groupid Triplex_Line;
	length 20.10;
	name line_17;
	phases CS;
	to triplex_node_5;
}

object triplex_node{
	name triplex_node_5;
	nominal_voltage 120;
	phases CS;
}

object triplex_line{
	configuration triplex_line_configuration_3;
	from triplex_node_5;
	groupid Triplex_Line;
	length 20.10;
	name line_18;
	phases CS;
	to triplex_meter_3;
}

object triplex_meter{
	bill_day 1;
	bill_mode HOURLY;
	groupid house_meter;
	monthly_fee 15;
	name triplex_meter_3;
	nominal_voltage 120;
	phases CS;
	power_market auction_2;
}

object ZIPload{
	base_power unresponsive_loads*0.32;
	current_fraction 0.400000;
	current_pf 0.970;
	groupid Uncontrollable_load;
	heatgain_fraction 0.900;
	impedance_fraction 0.200000;
	impedance_pf 0.970;
	name ZIPload_3;
	parent house_3;
	power_fraction 0.400000;
	power_pf 0.970;
	schedule_skew 415;
}

object house{
	Rdoors 11.28;
	Rfloor 27.22;
	Rroof 40.63;
	Rwall 23.14;
	air_temperature 73.0626373911;
	airchange_per_hour 0.25;
	auxiliary_strategy DEADBAND;
	auxiliary_system_type NONE;
	breaker_amps 1000;
	ceiling_height 9;
	cooling_COP 3.94;
	cooling_setpoint general_cooling*2.34912283579 + 73.0626373911;
	cooling_system_type ELECTRIC;
	floor_area 2480;
	glass_type 2;
	glazing_layers 3;
	glazing_treatment 2;
	groupid res;
	heating_COP 3.9;
	heating_setpoint 50;
	heating_system_type HEAT_PUMP;
	hvac_breaker_rating 1000;
	mass_temperature 73.0626373911;
	motor_efficiency VERY_GOOD;
	motor_model BASIC;
	name house_3;
	number_of_stories 1;
	over_sizing_factor 0.0;
	parent triplex_meter_3;
	schedule_skew 539.298319155;
	total_thermal_mass_per_floor_area 3.665;
	window_frame 4;
	window_wall_ratio 0.15;
}

object triplex_line_configuration{
	conductor_1 trip_line_conductor;
	conductor_2 trip_line_conductor;
	conductor_N trip_line_conductor;
	diameter 0.368;
	insulation_thickness 0.08;
	name triplex_line_configuration_4;
}

object triplex_line{
	configuration triplex_line_configuration_4;
	from triplex_node_2;
	groupid Triplex_Line;
	length 20.10;
	name line_19;
	phases CS;
	to triplex_node_6;
}

object triplex_node{
	name triplex_node_6;
	nominal_voltage 120;
	phases CS;
}

object triplex_line{
	configuration triplex_line_configuration_4;
	from triplex_node_6;
	groupid Triplex_Line;
	length 20.10;
	name line_20;
	phases CS;
	to triplex_meter_4;
}

object triplex_meter{
	bill_day 1;
	bill_mode HOURLY;
	groupid house_meter;
	monthly_fee 15;
	name triplex_meter_4;
	nominal_voltage 120;
	phases CS;
	power_market auction_2;
}

object ZIPload{
	base_power unresponsive_loads*0.32;
	current_fraction 0.400000;
	current_pf 0.970;
	groupid Uncontrollable_load;
	heatgain_fraction 0.900;
	impedance_fraction 0.200000;
	impedance_pf 0.970;
	name ZIPload_4;
	parent house_4;
	power_fraction 0.400000;
	power_pf 0.970;
	schedule_skew 415;
}

object house{
	Rdoors 11.28;
	Rfloor 27.22;
	Rroof 40.63;
	Rwall 23.14;
	air_temperature 73.4246420719;
	airchange_per_hour 0.25;
	auxiliary_strategy DEADBAND;
	auxiliary_system_type NONE;
	breaker_amps 1000;
	ceiling_height 9;
	cooling_COP 3.94;
	cooling_setpoint general_cooling*1.76500476499 + 73.4246420719;
	cooling_system_type ELECTRIC;
	floor_area 2480;
	glass_type 2;
	glazing_layers 3;
	glazing_treatment 2;
	groupid res;
	heating_COP 3.9;
	heating_setpoint 50;
	heating_system_type HEAT_PUMP;
	hvac_breaker_rating 1000;
	mass_temperature 73.4246420719;
	motor_efficiency VERY_GOOD;
	motor_model BASIC;
	name house_4;
	number_of_stories 1;
	over_sizing_factor 0.0;
	parent triplex_meter_4;
	schedule_skew 6559.30221878;
	total_thermal_mass_per_floor_area 3.665;
	window_frame 4;
	window_wall_ratio 0.15;
}

object triplex_line_configuration{
	conductor_1 trip_line_conductor;
	conductor_2 trip_line_conductor;
	conductor_N trip_line_conductor;
	diameter 0.368;
	insulation_thickness 0.08;
	name triplex_line_configuration_5;
}

object triplex_line{
	configuration triplex_line_configuration_5;
	from triplex_node_2;
	groupid Triplex_Line;
	length 20.10;
	name line_21;
	phases CS;
	to triplex_node_7;
}

object triplex_node{
	name triplex_node_7;
	nominal_voltage 120;
	phases CS;
}

object triplex_line{
	configuration triplex_line_configuration_5;
	from triplex_node_7;
	groupid Triplex_Line;
	length 20.10;
	name line_22;
	phases CS;
	to triplex_meter_5;
}

object triplex_meter{
	bill_day 1;
	bill_mode HOURLY;
	groupid house_meter;
	monthly_fee 15;
	name triplex_meter_5;
	nominal_voltage 120;
	phases CS;
	power_market auction_2;
}

object ZIPload{
	base_power unresponsive_loads*0.32;
	current_fraction 0.400000;
	current_pf 0.970;
	groupid Uncontrollable_load;
	heatgain_fraction 0.900;
	impedance_fraction 0.200000;
	impedance_pf 0.970;
	name ZIPload_5;
	parent house_5;
	power_fraction 0.400000;
	power_pf 0.970;
	schedule_skew 415;
}

object house{
	Rdoors 11.28;
	Rfloor 27.22;
	Rroof 40.63;
	Rwall 23.14;
	air_temperature 72.3634899644;
	airchange_per_hour 0.25;
	auxiliary_strategy DEADBAND;
	auxiliary_system_type NONE;
	breaker_amps 1000;
	ceiling_height 9;
	cooling_COP 3.94;
	cooling_setpoint general_cooling*3.79944555363 + 72.3634899644;
	cooling_system_type ELECTRIC;
	floor_area 2480;
	glass_type 2;
	glazing_layers 3;
	glazing_treatment 2;
	groupid res;
	heating_COP 3.9;
	heating_setpoint 50;
	heating_system_type HEAT_PUMP;
	hvac_breaker_rating 1000;
	mass_temperature 72.3634899644;
	motor_efficiency VERY_GOOD;
	motor_model BASIC;
	name house_5;
	number_of_stories 1;
	over_sizing_factor 0.0;
	parent triplex_meter_5;
	schedule_skew 1599.79688209;
	total_thermal_mass_per_floor_area 3.665;
	window_frame 4;
	window_wall_ratio 0.15;
}

object triplex_line_configuration{
	conductor_1 trip_line_conductor;
	conductor_2 trip_line_conductor;
	conductor_N trip_line_conductor;
	diameter 0.368;
	insulation_thickness 0.08;
	name triplex_line_configuration_6;
}

object triplex_line{
	configuration triplex_line_configuration_6;
	from triplex_node_2;
	groupid Triplex_Line;
	length 20.10;
	name line_23;
	phases CS;
	to triplex_node_8;
}

object triplex_node{
	name triplex_node_8;
	nominal_voltage 120;
	phases CS;
}

object triplex_line{
	configuration triplex_line_configuration_6;
	from triplex_node_8;
	groupid Triplex_Line;
	length 20.10;
	name line_24;
	phases CS;
	to triplex_meter_6;
}

object triplex_meter{
	bill_day 1;
	bill_mode HOURLY;
	groupid house_meter;
	monthly_fee 15;
	name triplex_meter_6;
	nominal_voltage 120;
	phases CS;
	power_market auction_2;
}

object ZIPload{
	base_power unresponsive_loads*0.32;
	current_fraction 0.400000;
	current_pf 0.970;
	groupid Uncontrollable_load;
	heatgain_fraction 0.900;
	impedance_fraction 0.200000;
	impedance_pf 0.970;
	name ZIPload_6;
	parent house_6;
	power_fraction 0.400000;
	power_pf 0.970;
	schedule_skew 415;
}

object house{
	Rdoors 11.28;
	Rfloor 27.22;
	Rroof 40.63;
	Rwall 23.14;
	air_temperature 74.2730309806;
	airchange_per_hour 0.25;
	auxiliary_strategy DEADBAND;
	auxiliary_system_type NONE;
	breaker_amps 1000;
	ceiling_height 9;
	cooling_COP 3.94;
	cooling_setpoint general_cooling*1.50041560732 + 74.2730309806;
	cooling_system_type ELECTRIC;
	floor_area 2480;
	glass_type 2;
	glazing_layers 3;
	glazing_treatment 2;
	groupid res;
	heating_COP 3.9;
	heating_setpoint 50;
	heating_system_type HEAT_PUMP;
	hvac_breaker_rating 1000;
	mass_temperature 74.2730309806;
	motor_efficiency VERY_GOOD;
	motor_model BASIC;
	name house_6;
	number_of_stories 1;
	over_sizing_factor 0.0;
	parent triplex_meter_6;
	schedule_skew 13702.6995546;
	total_thermal_mass_per_floor_area 3.665;
	window_frame 4;
	window_wall_ratio 0.15;
}

object triplex_line_configuration{
	conductor_1 trip_line_conductor;
	conductor_2 trip_line_conductor;
	conductor_N trip_line_conductor;
	diameter 0.368;
	insulation_thickness 0.08;
	name triplex_line_configuration_7;
}

object triplex_line{
	configuration triplex_line_configuration_7;
	from triplex_node_2;
	groupid Triplex_Line;
	length 20.10;
	name line_25;
	phases CS;
	to triplex_node_9;
}

object triplex_node{
	name triplex_node_9;
	nominal_voltage 120;
	phases CS;
}

object triplex_line{
	configuration triplex_line_configuration_7;
	from triplex_node_9;
	groupid Triplex_Line;
	length 20.10;
	name line_26;
	phases CS;
	to triplex_meter_7;
}

object triplex_meter{
	bill_day 1;
	bill_mode HOURLY;
	groupid house_meter;
	monthly_fee 15;
	name triplex_meter_7;
	nominal_voltage 120;
	phases CS;
	power_market auction_2;
}

object ZIPload{
	base_power unresponsive_loads*0.32;
	current_fraction 0.400000;
	current_pf 0.970;
	groupid Uncontrollable_load;
	heatgain_fraction 0.900;
	impedance_fraction 0.200000;
	impedance_pf 0.970;
	name ZIPload_7;
	parent house_7;
	power_fraction 0.400000;
	power_pf 0.970;
	schedule_skew 415;
}

object house{
	Rdoors 11.28;
	Rfloor 27.22;
	Rroof 40.63;
	Rwall 23.14;
	air_temperature 71.892273873;
	airchange_per_hour 0.25;
	auxiliary_strategy DEADBAND;
	auxiliary_system_type NONE;
	breaker_amps 1000;
	ceiling_height 9;
	cooling_COP 3.94;
	cooling_setpoint general_cooling*3.06141972936 + 71.892273873;
	cooling_system_type ELECTRIC;
	floor_area 2480;
	glass_type 2;
	glazing_layers 3;
	glazing_treatment 2;
	groupid res;
	heating_COP 3.9;
	heating_setpoint 50;
	heating_system_type HEAT_PUMP;
	hvac_breaker_rating 1000;
	mass_temperature 71.892273873;
	motor_efficiency VERY_GOOD;
	motor_model BASIC;
	name house_7;
	number_of_stories 1;
	over_sizing_factor 0.0;
	parent triplex_meter_7;
	schedule_skew 13514.0101611;
	total_thermal_mass_per_floor_area 3.665;
	window_frame 4;
	window_wall_ratio 0.15;
}

object transformer_configuration{
	connect_type SINGLE_PHASE_CENTER_TAPPED;
	impedance 0.00033+0.0022j;
	install_type POLETOP;
	name transformer_configuration_3;
	powerB_rating 25;
	primary_voltage 2401.777;
	secondary_voltage 120;
	shunt_impedance 10000+10000j;
}

object transformer{
	configuration transformer_configuration_3;
	from node_14;
	groupid Distribution_Trans;
	name transformer_3;
	phases BS;
	to triplex_node_10;
}

object triplex_node{
	name triplex_node_10;
	nominal_voltage 120;
	phases BS;
}

object triplex_line_configuration{
	conductor_1 trip_line_conductor;
	conductor_2 trip_line_conductor;
	conductor_N trip_line_conductor;
	diameter 0.368;
	insulation_thickness 0.08;
	name triplex_line_configuration_8;
}

object triplex_line{
	configuration triplex_line_configuration_8;
	from triplex_node_10;
	groupid Triplex_Line;
	length 20.10;
	name line_27;
	phases BS;
	to triplex_node_11;
}

object triplex_node{
	name triplex_node_11;
	nominal_voltage 120;
	phases BS;
}

object triplex_line{
	configuration triplex_line_configuration_8;
	from triplex_node_11;
	groupid Triplex_Line;
	length 20.10;
	name line_28;
	phases BS;
	to triplex_meter_8;
}

object triplex_meter{
	bill_day 1;
	bill_mode HOURLY;
	groupid house_meter;
	monthly_fee 15;
	name triplex_meter_8;
	nominal_voltage 120;
	phases BS;
	power_market auction_2;
}

object ZIPload{
	base_power unresponsive_loads*0.32;
	current_fraction 0.400000;
	current_pf 0.970;
	groupid Uncontrollable_load;
	heatgain_fraction 0.900;
	impedance_fraction 0.200000;
	impedance_pf 0.970;
	name ZIPload_8;
	parent house_8;
	power_fraction 0.400000;
	power_pf 0.970;
	schedule_skew 415;
}

object house{
	Rdoors 11.28;
	Rfloor 27.22;
	Rroof 40.63;
	Rwall 23.14;
	air_temperature 73.0183405333;
	airchange_per_hour 0.25;
	auxiliary_strategy DEADBAND;
	auxiliary_system_type NONE;
	breaker_amps 1000;
	ceiling_height 9;
	cooling_COP 3.94;
	cooling_setpoint general_cooling*0.897552641357 + 73.0183405333;
	cooling_system_type ELECTRIC;
	floor_area 2480;
	glass_type 2;
	glazing_layers 3;
	glazing_treatment 2;
	groupid res;
	heating_COP 3.9;
	heating_setpoint 50;
	heating_system_type HEAT_PUMP;
	hvac_breaker_rating 1000;
	mass_temperature 73.0183405333;
	motor_efficiency VERY_GOOD;
	motor_model BASIC;
	name house_8;
	number_of_stories 1;
	over_sizing_factor 0.0;
	parent triplex_meter_8;
	schedule_skew 13156.0906953;
	total_thermal_mass_per_floor_area 3.665;
	window_frame 4;
	window_wall_ratio 0.15;
}

object triplex_line_configuration{
	conductor_1 trip_line_conductor;
	conductor_2 trip_line_conductor;
	conductor_N trip_line_conductor;
	diameter 0.368;
	insulation_thickness 0.08;
	name triplex_line_configuration_9;
}

object triplex_line{
	configuration triplex_line_configuration_9;
	from triplex_node_10;
	groupid Triplex_Line;
	length 20.10;
	name line_29;
	phases BS;
	to triplex_node_12;
}

object triplex_node{
	name triplex_node_12;
	nominal_voltage 120;
	phases BS;
}

object triplex_line{
	configuration triplex_line_configuration_9;
	from triplex_node_12;
	groupid Triplex_Line;
	length 20.10;
	name line_30;
	phases BS;
	to triplex_meter_9;
}

object triplex_meter{
	bill_day 1;
	bill_mode HOURLY;
	groupid house_meter;
	monthly_fee 15;
	name triplex_meter_9;
	nominal_voltage 120;
	phases BS;
	power_market auction_2;
}

object ZIPload{
	base_power unresponsive_loads*0.32;
	current_fraction 0.400000;
	current_pf 0.970;
	groupid Uncontrollable_load;
	heatgain_fraction 0.900;
	impedance_fraction 0.200000;
	impedance_pf 0.970;
	name ZIPload_9;
	parent house_9;
	power_fraction 0.400000;
	power_pf 0.970;
	schedule_skew 415;
}

object house{
	Rdoors 11.28;
	Rfloor 27.22;
	Rroof 40.63;
	Rwall 23.14;
	air_temperature 71.0228486731;
	airchange_per_hour 0.25;
	auxiliary_strategy DEADBAND;
	auxiliary_system_type NONE;
	breaker_amps 1000;
	ceiling_height 9;
	cooling_COP 3.94;
	cooling_setpoint general_cooling*1.32993752691 + 71.0228486731;
	cooling_system_type ELECTRIC;
	floor_area 2480;
	glass_type 2;
	glazing_layers 3;
	glazing_treatment 2;
	groupid res;
	heating_COP 3.9;
	heating_setpoint 50;
	heating_system_type HEAT_PUMP;
	hvac_breaker_rating 1000;
	mass_temperature 71.0228486731;
	motor_efficiency VERY_GOOD;
	motor_model BASIC;
	name house_9;
	number_of_stories 1;
	over_sizing_factor 0.0;
	parent triplex_meter_9;
	schedule_skew 8043.09592213;
	total_thermal_mass_per_floor_area 3.665;
	window_frame 4;
	window_wall_ratio 0.15;
}

object triplex_line_configuration{
	conductor_1 trip_line_conductor;
	conductor_2 trip_line_conductor;
	conductor_N trip_line_conductor;
	diameter 0.368;
	insulation_thickness 0.08;
	name triplex_line_configuration_10;
}

object triplex_line{
	configuration triplex_line_configuration_10;
	from triplex_node_10;
	groupid Triplex_Line;
	length 20.10;
	name line_31;
	phases BS;
	to triplex_node_13;
}

object triplex_node{
	name triplex_node_13;
	nominal_voltage 120;
	phases BS;
}

object triplex_line{
	configuration triplex_line_configuration_10;
	from triplex_node_13;
	groupid Triplex_Line;
	length 20.10;
	name line_32;
	phases BS;
	to triplex_meter_10;
}

object triplex_meter{
	bill_day 1;
	bill_mode HOURLY;
	groupid house_meter;
	monthly_fee 15;
	name triplex_meter_10;
	nominal_voltage 120;
	phases BS;
	power_market auction_2;
}

object ZIPload{
	base_power unresponsive_loads*0.32;
	current_fraction 0.400000;
	current_pf 0.970;
	groupid Uncontrollable_load;
	heatgain_fraction 0.900;
	impedance_fraction 0.200000;
	impedance_pf 0.970;
	name ZIPload_10;
	parent house_10;
	power_fraction 0.400000;
	power_pf 0.970;
	schedule_skew 415;
}

object house{
	Rdoors 11.28;
	Rfloor 27.22;
	Rroof 40.63;
	Rwall 23.14;
	air_temperature 71.8517605293;
	airchange_per_hour 0.25;
	auxiliary_strategy DEADBAND;
	auxiliary_system_type NONE;
	breaker_amps 1000;
	ceiling_height 9;
	cooling_COP 3.94;
	cooling_setpoint general_cooling*4.93667939171 + 71.8517605293;
	cooling_system_type ELECTRIC;
	floor_area 2480;
	glass_type 2;
	glazing_layers 3;
	glazing_treatment 2;
	groupid res;
	heating_COP 3.9;
	heating_setpoint 50;
	heating_system_type HEAT_PUMP;
	hvac_breaker_rating 1000;
	mass_temperature 71.8517605293;
	motor_efficiency VERY_GOOD;
	motor_model BASIC;
	name house_10;
	number_of_stories 1;
	over_sizing_factor 0.0;
	parent triplex_meter_10;
	schedule_skew 4701.77073947;
	total_thermal_mass_per_floor_area 3.665;
	window_frame 4;
	window_wall_ratio 0.15;
}

object triplex_line_configuration{
	conductor_1 trip_line_conductor;
	conductor_2 trip_line_conductor;
	conductor_N trip_line_conductor;
	diameter 0.368;
	insulation_thickness 0.08;
	name triplex_line_configuration_11;
}

object triplex_line{
	configuration triplex_line_configuration_11;
	from triplex_node_10;
	groupid Triplex_Line;
	length 20.10;
	name line_33;
	phases BS;
	to triplex_node_14;
}

object triplex_node{
	name triplex_node_14;
	nominal_voltage 120;
	phases BS;
}

object triplex_line{
	configuration triplex_line_configuration_11;
	from triplex_node_14;
	groupid Triplex_Line;
	length 20.10;
	name line_34;
	phases BS;
	to triplex_meter_11;
}

object triplex_meter{
	bill_day 1;
	bill_mode HOURLY;
	groupid house_meter;
	monthly_fee 15;
	name triplex_meter_11;
	nominal_voltage 120;
	phases BS;
	power_market auction_2;
}

object ZIPload{
	base_power unresponsive_loads*0.32;
	current_fraction 0.400000;
	current_pf 0.970;
	groupid Uncontrollable_load;
	heatgain_fraction 0.900;
	impedance_fraction 0.200000;
	impedance_pf 0.970;
	name ZIPload_11;
	parent house_11;
	power_fraction 0.400000;
	power_pf 0.970;
	schedule_skew 415;
}

object house{
	Rdoors 11.28;
	Rfloor 27.22;
	Rroof 40.63;
	Rwall 23.14;
	air_temperature 70.4803341415;
	airchange_per_hour 0.25;
	auxiliary_strategy DEADBAND;
	auxiliary_system_type NONE;
	breaker_amps 1000;
	ceiling_height 9;
	cooling_COP 3.94;
	cooling_setpoint general_cooling*3.97759766352 + 70.4803341415;
	cooling_system_type ELECTRIC;
	floor_area 2480;
	glass_type 2;
	glazing_layers 3;
	glazing_treatment 2;
	groupid res;
	heating_COP 3.9;
	heating_setpoint 50;
	heating_system_type HEAT_PUMP;
	hvac_breaker_rating 1000;
	mass_temperature 70.4803341415;
	motor_efficiency VERY_GOOD;
	motor_model BASIC;
	name house_11;
	number_of_stories 1;
	over_sizing_factor 0.0;
	parent triplex_meter_11;
	schedule_skew 14060.4883239;
	total_thermal_mass_per_floor_area 3.665;
	window_frame 4;
	window_wall_ratio 0.15;
}

object triplex_line_configuration{
	conductor_1 trip_line_conductor;
	conductor_2 trip_line_conductor;
	conductor_N trip_line_conductor;
	diameter 0.368;
	insulation_thickness 0.08;
	name triplex_line_configuration_12;
}

object triplex_line{
	configuration triplex_line_configuration_12;
	from triplex_node_10;
	groupid Triplex_Line;
	length 20.10;
	name line_35;
	phases BS;
	to triplex_node_15;
}

object triplex_node{
	name triplex_node_15;
	nominal_voltage 120;
	phases BS;
}

object triplex_line{
	configuration triplex_line_configuration_12;
	from triplex_node_15;
	groupid Triplex_Line;
	length 20.10;
	name line_36;
	phases BS;
	to triplex_meter_12;
}

object triplex_meter{
	bill_day 1;
	bill_mode HOURLY;
	groupid house_meter;
	monthly_fee 15;
	name triplex_meter_12;
	nominal_voltage 120;
	phases BS;
	power_market auction_2;
}

object ZIPload{
	base_power unresponsive_loads*0.32;
	current_fraction 0.400000;
	current_pf 0.970;
	groupid Uncontrollable_load;
	heatgain_fraction 0.900;
	impedance_fraction 0.200000;
	impedance_pf 0.970;
	name ZIPload_12;
	parent house_12;
	power_fraction 0.400000;
	power_pf 0.970;
	schedule_skew 415;
}

object house{
	Rdoors 11.28;
	Rfloor 27.22;
	Rroof 40.63;
	Rwall 23.14;
	air_temperature 71.4284978313;
	airchange_per_hour 0.25;
	auxiliary_strategy DEADBAND;
	auxiliary_system_type NONE;
	breaker_amps 1000;
	ceiling_height 9;
	cooling_COP 3.94;
	cooling_setpoint general_cooling*0.608552527546 + 71.4284978313;
	cooling_system_type ELECTRIC;
	floor_area 2480;
	glass_type 2;
	glazing_layers 3;
	glazing_treatment 2;
	groupid res;
	heating_COP 3.9;
	heating_setpoint 50;
	heating_system_type HEAT_PUMP;
	hvac_breaker_rating 1000;
	mass_temperature 71.4284978313;
	motor_efficiency VERY_GOOD;
	motor_model BASIC;
	name house_12;
	number_of_stories 1;
	over_sizing_factor 0.0;
	parent triplex_meter_12;
	schedule_skew 7436.71612305;
	total_thermal_mass_per_floor_area 3.665;
	window_frame 4;
	window_wall_ratio 0.15;
}

object triplex_line_configuration{
	conductor_1 trip_line_conductor;
	conductor_2 trip_line_conductor;
	conductor_N trip_line_conductor;
	diameter 0.368;
	insulation_thickness 0.08;
	name triplex_line_configuration_13;
}

object triplex_line{
	configuration triplex_line_configuration_13;
	from triplex_node_10;
	groupid Triplex_Line;
	length 20.10;
	name line_37;
	phases BS;
	to triplex_node_16;
}

object triplex_node{
	name triplex_node_16;
	nominal_voltage 120;
	phases BS;
}

object triplex_line{
	configuration triplex_line_configuration_13;
	from triplex_node_16;
	groupid Triplex_Line;
	length 20.10;
	name line_38;
	phases BS;
	to triplex_meter_13;
}

object triplex_meter{
	bill_day 1;
	bill_mode HOURLY;
	groupid house_meter;
	monthly_fee 15;
	name triplex_meter_13;
	nominal_voltage 120;
	phases BS;
	power_market auction_2;
}

object ZIPload{
	base_power unresponsive_loads*0.32;
	current_fraction 0.400000;
	current_pf 0.970;
	groupid Uncontrollable_load;
	heatgain_fraction 0.900;
	impedance_fraction 0.200000;
	impedance_pf 0.970;
	name ZIPload_13;
	parent house_13;
	power_fraction 0.400000;
	power_pf 0.970;
	schedule_skew 415;
}

object house{
	Rdoors 11.28;
	Rfloor 27.22;
	Rroof 40.63;
	Rwall 23.14;
	air_temperature 73.6049249891;
	airchange_per_hour 0.25;
	auxiliary_strategy DEADBAND;
	auxiliary_system_type NONE;
	breaker_amps 1000;
	ceiling_height 9;
	cooling_COP 3.94;
	cooling_setpoint general_cooling*0.650841533194 + 73.6049249891;
	cooling_system_type ELECTRIC;
	floor_area 2480;
	glass_type 2;
	glazing_layers 3;
	glazing_treatment 2;
	groupid res;
	heating_COP 3.9;
	heating_setpoint 50;
	heating_system_type HEAT_PUMP;
	hvac_breaker_rating 1000;
	mass_temperature 73.6049249891;
	motor_efficiency VERY_GOOD;
	motor_model BASIC;
	name house_13;
	number_of_stories 1;
	over_sizing_factor 0.0;
	parent triplex_meter_13;
	schedule_skew 1039.77787204;
	total_thermal_mass_per_floor_area 3.665;
	window_frame 4;
	window_wall_ratio 0.15;
}

object transformer_configuration{
	connect_type SINGLE_PHASE_CENTER_TAPPED;
	impedance 0.00033+0.0022j;
	install_type POLETOP;
	name transformer_configuration_4;
	powerA_rating 25;
	primary_voltage 2401.777;
	secondary_voltage 120;
	shunt_impedance 10000+10000j;
}

object transformer{
	configuration transformer_configuration_4;
	from node_4;
	groupid Distribution_Trans;
	name transformer_4;
	phases AS;
	to triplex_node_17;
}

object triplex_node{
	name triplex_node_17;
	nominal_voltage 120;
	phases AS;
}

object triplex_line_configuration{
	conductor_1 trip_line_conductor;
	conductor_2 trip_line_conductor;
	conductor_N trip_line_conductor;
	diameter 0.368;
	insulation_thickness 0.08;
	name triplex_line_configuration_14;
}

object triplex_line{
	configuration triplex_line_configuration_14;
	from triplex_node_17;
	groupid Triplex_Line;
	length 20.10;
	name line_39;
	phases AS;
	to triplex_node_18;
}

object triplex_node{
	name triplex_node_18;
	nominal_voltage 120;
	phases AS;
}

object triplex_line{
	configuration triplex_line_configuration_14;
	from triplex_node_18;
	groupid Triplex_Line;
	length 20.10;
	name line_40;
	phases AS;
	to triplex_meter_14;
}

object triplex_meter{
	bill_day 1;
	bill_mode HOURLY;
	groupid house_meter;
	monthly_fee 15;
	name triplex_meter_14;
	nominal_voltage 120;
	phases AS;
	power_market auction_2;
}

object ZIPload{
	base_power unresponsive_loads*0.32;
	current_fraction 0.400000;
	current_pf 0.970;
	groupid Uncontrollable_load;
	heatgain_fraction 0.900;
	impedance_fraction 0.200000;
	impedance_pf 0.970;
	name ZIPload_14;
	parent house_14;
	power_fraction 0.400000;
	power_pf 0.970;
	schedule_skew 415;
}

object house{
	Rdoors 11.28;
	Rfloor 27.22;
	Rroof 40.63;
	Rwall 23.14;
	air_temperature 74.5436498803;
	airchange_per_hour 0.25;
	auxiliary_strategy DEADBAND;
	auxiliary_system_type NONE;
	breaker_amps 1000;
	ceiling_height 9;
	cooling_COP 3.94;
	cooling_setpoint general_cooling*0.30338642791 + 74.5436498803;
	cooling_system_type ELECTRIC;
	floor_area 2480;
	glass_type 2;
	glazing_layers 3;
	glazing_treatment 2;
	groupid res;
	heating_COP 3.9;
	heating_setpoint 50;
	heating_system_type HEAT_PUMP;
	hvac_breaker_rating 1000;
	mass_temperature 74.5436498803;
	motor_efficiency VERY_GOOD;
	motor_model BASIC;
	name house_14;
	number_of_stories 1;
	over_sizing_factor 0.0;
	parent triplex_meter_14;
	schedule_skew 7258.83161254;
	total_thermal_mass_per_floor_area 3.665;
	window_frame 4;
	window_wall_ratio 0.15;
}

object triplex_line_configuration{
	conductor_1 trip_line_conductor;
	conductor_2 trip_line_conductor;
	conductor_N trip_line_conductor;
	diameter 0.368;
	insulation_thickness 0.08;
	name triplex_line_configuration_15;
}

object triplex_line{
	configuration triplex_line_configuration_15;
	from triplex_node_17;
	groupid Triplex_Line;
	length 20.10;
	name line_41;
	phases AS;
	to triplex_node_19;
}

object triplex_node{
	name triplex_node_19;
	nominal_voltage 120;
	phases AS;
}

object triplex_line{
	configuration triplex_line_configuration_15;
	from triplex_node_19;
	groupid Triplex_Line;
	length 20.10;
	name line_42;
	phases AS;
	to triplex_meter_15;
}

object triplex_meter{
	bill_day 1;
	bill_mode HOURLY;
	groupid house_meter;
	monthly_fee 15;
	name triplex_meter_15;
	nominal_voltage 120;
	phases AS;
	power_market auction_2;
}

object ZIPload{
	base_power unresponsive_loads*0.32;
	current_fraction 0.400000;
	current_pf 0.970;
	groupid Uncontrollable_load;
	heatgain_fraction 0.900;
	impedance_fraction 0.200000;
	impedance_pf 0.970;
	name ZIPload_15;
	parent house_15;
	power_fraction 0.400000;
	power_pf 0.970;
	schedule_skew 415;
}

object house{
	Rdoors 11.28;
	Rfloor 27.22;
	Rroof 40.63;
	Rwall 23.14;
	air_temperature 72.0049375382;
	airchange_per_hour 0.25;
	auxiliary_strategy DEADBAND;
	auxiliary_system_type NONE;
	breaker_amps 1000;
	ceiling_height 9;
	cooling_COP 3.94;
	cooling_setpoint general_cooling*1.15370972097 + 72.0049375382;
	cooling_system_type ELECTRIC;
	floor_area 2480;
	glass_type 2;
	glazing_layers 3;
	glazing_treatment 2;
	groupid res;
	heating_COP 3.9;
	heating_setpoint 50;
	heating_system_type HEAT_PUMP;
	hvac_breaker_rating 1000;
	mass_temperature 72.0049375382;
	motor_efficiency VERY_GOOD;
	motor_model BASIC;
	name house_15;
	number_of_stories 1;
	over_sizing_factor 0.0;
	parent triplex_meter_15;
	schedule_skew 3341.35851077;
	total_thermal_mass_per_floor_area 3.665;
	window_frame 4;
	window_wall_ratio 0.15;
}

object triplex_line_configuration{
	conductor_1 trip_line_conductor;
	conductor_2 trip_line_conductor;
	conductor_N trip_line_conductor;
	diameter 0.368;
	insulation_thickness 0.08;
	name triplex_line_configuration_16;
}

object triplex_line{
	configuration triplex_line_configuration_16;
	from triplex_node_17;
	groupid Triplex_Line;
	length 20.10;
	name line_43;
	phases AS;
	to triplex_node_20;
}

object triplex_node{
	name triplex_node_20;
	nominal_voltage 120;
	phases AS;
}

object triplex_line{
	configuration triplex_line_configuration_16;
	from triplex_node_20;
	groupid Triplex_Line;
	length 20.10;
	name line_44;
	phases AS;
	to triplex_meter_16;
}

object triplex_meter{
	bill_day 1;
	bill_mode HOURLY;
	groupid house_meter;
	monthly_fee 15;
	name triplex_meter_16;
	nominal_voltage 120;
	phases AS;
	power_market auction_2;
}

object ZIPload{
	base_power unresponsive_loads*0.32;
	current_fraction 0.400000;
	current_pf 0.970;
	groupid Uncontrollable_load;
	heatgain_fraction 0.900;
	impedance_fraction 0.200000;
	impedance_pf 0.970;
	name ZIPload_16;
	parent house_16;
	power_fraction 0.400000;
	power_pf 0.970;
	schedule_skew 415;
}

object house{
	Rdoors 11.28;
	Rfloor 27.22;
	Rroof 40.63;
	Rwall 23.14;
	air_temperature 71.0042347985;
	airchange_per_hour 0.25;
	auxiliary_strategy DEADBAND;
	auxiliary_system_type NONE;
	breaker_amps 1000;
	ceiling_height 9;
	cooling_COP 3.94;
	cooling_setpoint general_cooling*4.25582083893 + 71.0042347985;
	cooling_system_type ELECTRIC;
	floor_area 2480;
	glass_type 2;
	glazing_layers 3;
	glazing_treatment 2;
	groupid res;
	heating_COP 3.9;
	heating_setpoint 50;
	heating_system_type HEAT_PUMP;
	hvac_breaker_rating 1000;
	mass_temperature 71.0042347985;
	motor_efficiency VERY_GOOD;
	motor_model BASIC;
	name house_16;
	number_of_stories 1;
	over_sizing_factor 0.0;
	parent triplex_meter_16;
	schedule_skew 741.545950204;
	total_thermal_mass_per_floor_area 3.665;
	window_frame 4;
	window_wall_ratio 0.15;
}

object transformer_configuration{
	connect_type SINGLE_PHASE_CENTER_TAPPED;
	impedance 0.00033+0.0022j;
	install_type POLETOP;
	name transformer_configuration_5;
	powerC_rating 25;
	primary_voltage 2401.777;
	secondary_voltage 120;
	shunt_impedance 10000+10000j;
}

object transformer{
	configuration transformer_configuration_5;
	from node_4;
	groupid Distribution_Trans;
	name transformer_5;
	phases CS;
	to triplex_node_21;
}

object triplex_node{
	name triplex_node_21;
	nominal_voltage 120;
	phases CS;
}

object triplex_line_configuration{
	conductor_1 trip_line_conductor;
	conductor_2 trip_line_conductor;
	conductor_N trip_line_conductor;
	diameter 0.368;
	insulation_thickness 0.08;
	name triplex_line_configuration_17;
}

object triplex_line{
	configuration triplex_line_configuration_17;
	from triplex_node_21;
	groupid Triplex_Line;
	length 20.10;
	name line_45;
	phases CS;
	to triplex_node_22;
}

object triplex_node{
	name triplex_node_22;
	nominal_voltage 120;
	phases CS;
}

object triplex_line{
	configuration triplex_line_configuration_17;
	from triplex_node_22;
	groupid Triplex_Line;
	length 20.10;
	name line_46;
	phases CS;
	to triplex_meter_17;
}

object triplex_meter{
	bill_day 1;
	bill_mode HOURLY;
	groupid house_meter;
	monthly_fee 15;
	name triplex_meter_17;
	nominal_voltage 120;
	phases CS;
	power_market auction_2;
}

object ZIPload{
	base_power unresponsive_loads*0.32;
	current_fraction 0.400000;
	current_pf 0.970;
	groupid Uncontrollable_load;
	heatgain_fraction 0.900;
	impedance_fraction 0.200000;
	impedance_pf 0.970;
	name ZIPload_17;
	parent house_17;
	power_fraction 0.400000;
	power_pf 0.970;
	schedule_skew 415;
}

object house{
	Rdoors 11.28;
	Rfloor 27.22;
	Rroof 40.63;
	Rwall 23.14;
	air_temperature 74.7592087899;
	airchange_per_hour 0.25;
	auxiliary_strategy DEADBAND;
	auxiliary_system_type NONE;
	breaker_amps 1000;
	ceiling_height 9;
	cooling_COP 3.94;
	cooling_setpoint general_cooling*0.888858749122 + 74.7592087899;
	cooling_system_type ELECTRIC;
	floor_area 2480;
	glass_type 2;
	glazing_layers 3;
	glazing_treatment 2;
	groupid res;
	heating_COP 3.9;
	heating_setpoint 50;
	heating_system_type HEAT_PUMP;
	hvac_breaker_rating 1000;
	mass_temperature 74.7592087899;
	motor_efficiency VERY_GOOD;
	motor_model BASIC;
	name house_17;
	number_of_stories 1;
	over_sizing_factor 0.0;
	parent triplex_meter_17;
	schedule_skew 12074.3849603;
	total_thermal_mass_per_floor_area 3.665;
	window_frame 4;
	window_wall_ratio 0.15;
}

object triplex_line_configuration{
	conductor_1 trip_line_conductor;
	conductor_2 trip_line_conductor;
	conductor_N trip_line_conductor;
	diameter 0.368;
	insulation_thickness 0.08;
	name triplex_line_configuration_18;
}

object triplex_line{
	configuration triplex_line_configuration_18;
	from triplex_node_21;
	groupid Triplex_Line;
	length 20.10;
	name line_47;
	phases CS;
	to triplex_node_23;
}

object triplex_node{
	name triplex_node_23;
	nominal_voltage 120;
	phases CS;
}

object triplex_line{
	configuration triplex_line_configuration_18;
	from triplex_node_23;
	groupid Triplex_Line;
	length 20.10;
	name line_48;
	phases CS;
	to triplex_meter_18;
}

object triplex_meter{
	bill_day 1;
	bill_mode HOURLY;
	groupid house_meter;
	monthly_fee 15;
	name triplex_meter_18;
	nominal_voltage 120;
	phases CS;
	power_market auction_2;
}

object ZIPload{
	base_power unresponsive_loads*0.32;
	current_fraction 0.400000;
	current_pf 0.970;
	groupid Uncontrollable_load;
	heatgain_fraction 0.900;
	impedance_fraction 0.200000;
	impedance_pf 0.970;
	name ZIPload_18;
	parent house_18;
	power_fraction 0.400000;
	power_pf 0.970;
	schedule_skew 415;
}

object house{
	Rdoors 11.28;
	Rfloor 27.22;
	Rroof 40.63;
	Rwall 23.14;
	air_temperature 73.0055447391;
	airchange_per_hour 0.25;
	auxiliary_strategy DEADBAND;
	auxiliary_system_type NONE;
	breaker_amps 1000;
	ceiling_height 9;
	cooling_COP 3.94;
	cooling_setpoint general_cooling*3.26683523257 + 73.0055447391;
	cooling_system_type ELECTRIC;
	floor_area 2480;
	glass_type 2;
	glazing_layers 3;
	glazing_treatment 2;
	groupid res;
	heating_COP 3.9;
	heating_setpoint 50;
	heating_system_type HEAT_PUMP;
	hvac_breaker_rating 1000;
	mass_temperature 73.0055447391;
	motor_efficiency VERY_GOOD;
	motor_model BASIC;
	name house_18;
	number_of_stories 1;
	over_sizing_factor 0.0;
	parent triplex_meter_18;
	schedule_skew 4977.1513579;
	total_thermal_mass_per_floor_area 3.665;
	window_frame 4;
	window_wall_ratio 0.15;
}

object triplex_line_configuration{
	conductor_1 trip_line_conductor;
	conductor_2 trip_line_conductor;
	conductor_N trip_line_conductor;
	diameter 0.368;
	insulation_thickness 0.08;
	name triplex_line_configuration_19;
}

object triplex_line{
	configuration triplex_line_configuration_19;
	from triplex_node_21;
	groupid Triplex_Line;
	length 20.10;
	name line_49;
	phases CS;
	to triplex_node_24;
}

object triplex_node{
	name triplex_node_24;
	nominal_voltage 120;
	phases CS;
}

object triplex_line{
	configuration triplex_line_configuration_19;
	from triplex_node_24;
	groupid Triplex_Line;
	length 20.10;
	name line_50;
	phases CS;
	to triplex_meter_19;
}

object triplex_meter{
	bill_day 1;
	bill_mode HOURLY;
	groupid house_meter;
	monthly_fee 15;
	name triplex_meter_19;
	nominal_voltage 120;
	phases CS;
	power_market auction_2;
}

object ZIPload{
	base_power unresponsive_loads*0.32;
	current_fraction 0.400000;
	current_pf 0.970;
	groupid Uncontrollable_load;
	heatgain_fraction 0.900;
	impedance_fraction 0.200000;
	impedance_pf 0.970;
	name ZIPload_19;
	parent house_19;
	power_fraction 0.400000;
	power_pf 0.970;
	schedule_skew 415;
}

object house{
	Rdoors 11.28;
	Rfloor 27.22;
	Rroof 40.63;
	Rwall 23.14;
	air_temperature 71.3524741011;
	airchange_per_hour 0.25;
	auxiliary_strategy DEADBAND;
	auxiliary_system_type NONE;
	breaker_amps 1000;
	ceiling_height 9;
	cooling_COP 3.94;
	cooling_setpoint general_cooling*1.38703844368 + 71.3524741011;
	cooling_system_type ELECTRIC;
	floor_area 2480;
	glass_type 2;
	glazing_layers 3;
	glazing_treatment 2;
	groupid res;
	heating_COP 3.9;
	heating_setpoint 50;
	heating_system_type HEAT_PUMP;
	hvac_breaker_rating 1000;
	mass_temperature 71.3524741011;
	motor_efficiency VERY_GOOD;
	motor_model BASIC;
	name house_19;
	number_of_stories 1;
	over_sizing_factor 0.0;
	parent triplex_meter_19;
	schedule_skew 5146.70531784;
	total_thermal_mass_per_floor_area 3.665;
	window_frame 4;
	window_wall_ratio 0.15;
}

object triplex_line_configuration{
	conductor_1 trip_line_conductor;
	conductor_2 trip_line_conductor;
	conductor_N trip_line_conductor;
	diameter 0.368;
	insulation_thickness 0.08;
	name triplex_line_configuration_20;
}

object triplex_line{
	configuration triplex_line_configuration_20;
	from triplex_node_21;
	groupid Triplex_Line;
	length 20.10;
	name line_51;
	phases CS;
	to triplex_node_25;
}

object triplex_node{
	name triplex_node_25;
	nominal_voltage 120;
	phases CS;
}

object triplex_line{
	configuration triplex_line_configuration_20;
	from triplex_node_25;
	groupid Triplex_Line;
	length 20.10;
	name line_52;
	phases CS;
	to triplex_meter_20;
}

object triplex_meter{
	bill_day 1;
	bill_mode HOURLY;
	groupid house_meter;
	monthly_fee 15;
	name triplex_meter_20;
	nominal_voltage 120;
	phases CS;
	power_market auction_2;
}

object ZIPload{
	base_power unresponsive_loads*0.32;
	current_fraction 0.400000;
	current_pf 0.970;
	groupid Uncontrollable_load;
	heatgain_fraction 0.900;
	impedance_fraction 0.200000;
	impedance_pf 0.970;
	name ZIPload_20;
	parent house_20;
	power_fraction 0.400000;
	power_pf 0.970;
	schedule_skew 415;
}

object house{
	Rdoors 11.28;
	Rfloor 27.22;
	Rroof 40.63;
	Rwall 23.14;
	air_temperature 74.5544838689;
	airchange_per_hour 0.25;
	auxiliary_strategy DEADBAND;
	auxiliary_system_type NONE;
	breaker_amps 1000;
	ceiling_height 9;
	cooling_COP 3.94;
	cooling_setpoint general_cooling*4.05964541481 + 74.5544838689;
	cooling_system_type ELECTRIC;
	floor_area 2480;
	glass_type 2;
	glazing_layers 3;
	glazing_treatment 2;
	groupid res;
	heating_COP 3.9;
	heating_setpoint 50;
	heating_system_type HEAT_PUMP;
	hvac_breaker_rating 1000;
	mass_temperature 74.5544838689;
	motor_efficiency VERY_GOOD;
	motor_model BASIC;
	name house_20;
	number_of_stories 1;
	over_sizing_factor 0.0;
	parent triplex_meter_20;
	schedule_skew 3769.60581957;
	total_thermal_mass_per_floor_area 3.665;
	window_frame 4;
	window_wall_ratio 0.15;
}

object triplex_line_configuration{
	conductor_1 trip_line_conductor;
	conductor_2 trip_line_conductor;
	conductor_N trip_line_conductor;
	diameter 0.368;
	insulation_thickness 0.08;
	name triplex_line_configuration_21;
}

object triplex_line{
	configuration triplex_line_configuration_21;
	from triplex_node_21;
	groupid Triplex_Line;
	length 20.10;
	name line_53;
	phases CS;
	to triplex_node_26;
}

object triplex_node{
	name triplex_node_26;
	nominal_voltage 120;
	phases CS;
}

object triplex_line{
	configuration triplex_line_configuration_21;
	from triplex_node_26;
	groupid Triplex_Line;
	length 20.10;
	name line_54;
	phases CS;
	to triplex_meter_21;
}

object triplex_meter{
	bill_day 1;
	bill_mode HOURLY;
	groupid house_meter;
	monthly_fee 15;
	name triplex_meter_21;
	nominal_voltage 120;
	phases CS;
	power_market auction_2;
}

object ZIPload{
	base_power unresponsive_loads*0.32;
	current_fraction 0.400000;
	current_pf 0.970;
	groupid Uncontrollable_load;
	heatgain_fraction 0.900;
	impedance_fraction 0.200000;
	impedance_pf 0.970;
	name ZIPload_21;
	parent house_21;
	power_fraction 0.400000;
	power_pf 0.970;
	schedule_skew 415;
}

object house{
	Rdoors 11.28;
	Rfloor 27.22;
	Rroof 40.63;
	Rwall 23.14;
	air_temperature 70.6208734264;
	airchange_per_hour 0.25;
	auxiliary_strategy DEADBAND;
	auxiliary_system_type NONE;
	breaker_amps 1000;
	ceiling_height 9;
	cooling_COP 3.94;
	cooling_setpoint general_cooling*2.18828538615 + 70.6208734264;
	cooling_system_type ELECTRIC;
	floor_area 2480;
	glass_type 2;
	glazing_layers 3;
	glazing_treatment 2;
	groupid res;
	heating_COP 3.9;
	heating_setpoint 50;
	heating_system_type HEAT_PUMP;
	hvac_breaker_rating 1000;
	mass_temperature 70.6208734264;
	motor_efficiency VERY_GOOD;
	motor_model BASIC;
	name house_21;
	number_of_stories 1;
	over_sizing_factor 0.0;
	parent triplex_meter_21;
	schedule_skew 3565.90042932;
	total_thermal_mass_per_floor_area 3.665;
	window_frame 4;
	window_wall_ratio 0.15;
}

object triplex_line_configuration{
	conductor_1 trip_line_conductor;
	conductor_2 trip_line_conductor;
	conductor_N trip_line_conductor;
	diameter 0.368;
	insulation_thickness 0.08;
	name triplex_line_configuration_22;
}

object triplex_line{
	configuration triplex_line_configuration_22;
	from triplex_node_21;
	groupid Triplex_Line;
	length 20.10;
	name line_55;
	phases CS;
	to triplex_node_27;
}

object triplex_node{
	name triplex_node_27;
	nominal_voltage 120;
	phases CS;
}

object triplex_line{
	configuration triplex_line_configuration_22;
	from triplex_node_27;
	groupid Triplex_Line;
	length 20.10;
	name line_56;
	phases CS;
	to triplex_meter_22;
}

object triplex_meter{
	bill_day 1;
	bill_mode HOURLY;
	groupid house_meter;
	monthly_fee 15;
	name triplex_meter_22;
	nominal_voltage 120;
	phases CS;
	power_market auction_2;
}

object ZIPload{
	base_power unresponsive_loads*0.32;
	current_fraction 0.400000;
	current_pf 0.970;
	groupid Uncontrollable_load;
	heatgain_fraction 0.900;
	impedance_fraction 0.200000;
	impedance_pf 0.970;
	name ZIPload_22;
	parent house_22;
	power_fraction 0.400000;
	power_pf 0.970;
	schedule_skew 415;
}

object house{
	Rdoors 11.28;
	Rfloor 27.22;
	Rroof 40.63;
	Rwall 23.14;
	air_temperature 71.4808836594;
	airchange_per_hour 0.25;
	auxiliary_strategy DEADBAND;
	auxiliary_system_type NONE;
	breaker_amps 1000;
	ceiling_height 9;
	cooling_COP 3.94;
	cooling_setpoint general_cooling*4.66715683391 + 71.4808836594;
	cooling_system_type ELECTRIC;
	floor_area 2480;
	glass_type 2;
	glazing_layers 3;
	glazing_treatment 2;
	groupid res;
	heating_COP 3.9;
	heating_setpoint 50;
	heating_system_type HEAT_PUMP;
	hvac_breaker_rating 1000;
	mass_temperature 71.4808836594;
	motor_efficiency VERY_GOOD;
	motor_model BASIC;
	name house_22;
	number_of_stories 1;
	over_sizing_factor 0.0;
	parent triplex_meter_22;
	schedule_skew 8237.90729778;
	total_thermal_mass_per_floor_area 3.665;
	window_frame 4;
	window_wall_ratio 0.15;
}

object triplex_line_configuration{
	conductor_1 trip_line_conductor;
	conductor_2 trip_line_conductor;
	conductor_N trip_line_conductor;
	diameter 0.368;
	insulation_thickness 0.08;
	name triplex_line_configuration_23;
}

object triplex_line{
	configuration triplex_line_configuration_23;
	from triplex_node_21;
	groupid Triplex_Line;
	length 20.10;
	name line_57;
	phases CS;
	to triplex_node_28;
}

object triplex_node{
	name triplex_node_28;
	nominal_voltage 120;
	phases CS;
}

object triplex_line{
	configuration triplex_line_configuration_23;
	from triplex_node_28;
	groupid Triplex_Line;
...